Version 4
SHEET 1 1796 680
WIRE 96 -416 16 -416
WIRE 400 -416 160 -416
WIRE 368 -368 176 -368
WIRE 176 -320 176 -368
WIRE 192 -320 176 -320
WIRE 368 -304 368 -368
WIRE 368 -304 256 -304
WIRE 400 -304 400 -416
WIRE 400 -304 368 -304
WIRE -80 -288 -128 -288
WIRE 16 -288 16 -416
WIRE 16 -288 0 -288
WIRE 32 -288 16 -288
WIRE 144 -288 112 -288
WIRE 192 -288 144 -288
WIRE 144 -256 144 -288
WIRE 1520 -80 1488 -80
WIRE 1568 -80 1520 -80
WIRE 1728 -80 1568 -80
WIRE 1728 -16 1728 -80
WIRE -224 16 -224 0
WIRE 608 32 304 32
WIRE 640 32 640 -16
WIRE 640 32 608 32
WIRE 672 32 640 32
WIRE 672 48 672 32
WIRE 1568 48 1568 -80
WIRE 1488 64 1488 -80
WIRE 336 96 272 96
WIRE 608 96 608 32
WIRE 608 96 560 96
WIRE -224 112 -224 96
WIRE -224 112 -288 112
WIRE 1280 112 1152 112
WIRE -224 128 -224 112
WIRE 1424 128 1344 128
WIRE 1488 128 1424 128
WIRE 1568 128 1488 128
WIRE 1728 128 1728 64
WIRE 1728 128 1568 128
WIRE 1264 144 1184 144
WIRE 1280 144 1264 144
WIRE 336 160 208 160
WIRE 592 160 560 160
WIRE 672 160 672 128
WIRE 672 160 592 160
WIRE 672 192 672 160
WIRE 224 224 128 224
WIRE 336 224 224 224
WIRE 592 224 592 160
WIRE 592 224 560 224
WIRE 1264 256 1264 144
WIRE 1280 256 1264 256
WIRE 1424 256 1424 128
WIRE 1424 256 1360 256
WIRE 224 272 224 224
WIRE -224 288 -224 208
WIRE 304 288 304 32
WIRE 336 288 304 288
WIRE 576 288 560 288
WIRE 672 288 672 256
WIRE 672 288 640 288
WIRE 128 320 128 304
WIRE 128 320 16 320
WIRE 128 336 128 320
WIRE 224 416 224 336
WIRE 224 416 128 416
WIRE 272 416 272 96
WIRE 272 416 224 416
WIRE 448 416 272 416
WIRE 672 416 672 288
WIRE 672 416 448 416
WIRE 448 448 448 416
FLAG -288 112 0
FLAG -640 240 0
FLAG -224 0 Vcc
FLAG 640 -16 Vcc
FLAG -640 160 Vtrig
FLAG -224 288 -Vcc
FLAG 448 448 0
FLAG 128 224 Vout
FLAG 16 320 Vouthalf
FLAG 1312 96 Vcc
FLAG 1312 160 0
FLAG 1184 144 Vout
FLAG 1152 112 Vouthalf
FLAG 144 -192 0
FLAG -128 -288 Vtrig
FLAG 400 -304 FilterOut
FLAG 208 160 FilterOut
FLAG 1520 -80 Vcc
SYMBOL voltage -224 0 R0
SYMATTR InstName V1
SYMATTR Value 12
SYMBOL voltage -224 112 R0
SYMATTR InstName V2
SYMATTR Value 12
SYMBOL voltage -640 144 R0
WINDOW 3 -127 -79 Left 2
SYMATTR Value PULSE(0 12 0 0.01m 0.01m 1.25m 2.5m)
SYMATTR InstName V3
SYMBOL Misc\\NE555 448 192 R0
SYMATTR InstName U1
SYMBOL cap 640 272 R90
WINDOW 0 0 32 VBottom 2
WINDOW 3 32 32 VTop 2
SYMATTR InstName C1
SYMATTR Value 10n
SYMBOL cap 656 192 R0
SYMATTR InstName C2
SYMATTR Value 10n
SYMBOL res 656 32 R0
SYMATTR InstName R1
SYMATTR Value 1Meg
SYMBOL res 112 208 R0
SYMATTR InstName R2
SYMATTR Value 1k
SYMBOL res 112 320 R0
SYMATTR InstName R3
SYMATTR Value 1k
SYMBOL OpAmps\\LT1638 224 -368 R0
SYMATTR InstName U2
SYMBOL OpAmps\\LT1638 1312 64 R0
SYMATTR InstName U3
SYMBOL res 1376 240 R90
WINDOW 0 0 56 VBottom 2
WINDOW 3 32 56 VTop 2
SYMATTR InstName R4
SYMATTR Value 5
SYMBOL cap 208 272 R0
SYMATTR InstName C4
SYMATTR Value 10n
SYMBOL res 128 -304 R90
WINDOW 0 0 56 VBottom 2
WINDOW 3 32 56 VTop 2
SYMATTR InstName R6
SYMATTR Value 15
SYMBOL res 16 -304 R90
WINDOW 0 0 56 VBottom 2
WINDOW 3 32 56 VTop 2
SYMATTR InstName R7
SYMATTR Value 15
SYMBOL cap 160 -432 R90
WINDOW 0 0 32 VBottom 2
WINDOW 3 32 32 VTop 2
SYMATTR InstName C5
SYMATTR Value 10n
SYMBOL cap 160 -192 R180
WINDOW 0 24 56 Left 2
WINDOW 3 24 8 Left 2
SYMATTR InstName C6
SYMATTR Value 10n
SYMBOL diode 1504 128 R180
WINDOW 0 24 64 Left 2
WINDOW 3 24 0 Left 2
SYMATTR InstName D1
SYMBOL res 1552 32 R0
SYMATTR InstName R5
SYMATTR Value 10k
SYMBOL res 1712 -32 R0
SYMATTR InstName R8
SYMATTR Value 1
TEXT -776 -16 Left 2 !.tran 0 2 1
