Version 4
SHEET 1 1116 680
WIRE 272 16 128 16
WIRE 352 16 272 16
WIRE 272 32 272 16
WIRE 128 80 128 16
WIRE 352 112 352 16
WIRE 320 128 288 128
WIRE 576 144 384 144
WIRE 720 144 576 144
WIRE 0 160 -48 160
WIRE 128 160 128 144
WIRE 128 160 80 160
WIRE 160 160 128 160
WIRE 272 160 272 112
WIRE 272 160 240 160
WIRE 288 160 288 128
WIRE 288 160 272 160
WIRE 320 160 304 160
WIRE 128 176 128 160
WIRE 576 192 576 144
WIRE 128 256 128 240
WIRE 304 256 304 160
WIRE 304 256 128 256
WIRE 128 288 128 256
FLAG 128 288 0
FLAG 128 -64 0
FLAG 800 144 0
FLAG 352 176 0
FLAG 576 272 0
SYMBOL diode 144 144 R180
WINDOW 0 24 64 Left 2
WINDOW 3 24 0 Left 2
SYMATTR InstName D1
SYMBOL diode 144 240 R180
WINDOW 0 24 64 Left 2
WINDOW 3 24 0 Left 2
SYMATTR InstName D2
SYMBOL res 96 144 R90
WINDOW 0 0 56 VBottom 2
WINDOW 3 32 56 VTop 2
SYMATTR InstName R1
SYMATTR Value 10k
SYMBOL voltage 128 32 R180
WINDOW 0 24 96 Left 2
WINDOW 3 24 16 Left 2
WINDOW 123 0 0 Left 0
WINDOW 39 0 0 Left 0
SYMATTR InstName V1
SYMATTR Value 5
SYMBOL voltage 704 144 R270
WINDOW 0 32 56 VTop 2
WINDOW 3 123 167 VBottom 2
WINDOW 123 0 0 Left 0
WINDOW 39 0 0 Left 0
SYMATTR InstName V2
SYMATTR Value PULSE(0 5 0 0.01m 0.01m 11.25m 22.5m)
SYMBOL OpAmps\\LT1638 352 80 R0
SYMATTR InstName U1
SYMBOL res 256 144 R90
WINDOW 0 0 56 VBottom 2
WINDOW 3 32 56 VTop 2
SYMATTR InstName R2
SYMATTR Value 1k
SYMBOL res 288 128 R180
WINDOW 0 36 76 Left 2
WINDOW 3 36 40 Left 2
SYMATTR InstName R3
SYMATTR Value 100k
SYMBOL res 560 176 R0
SYMATTR InstName R4
SYMATTR Value 1k
TEXT -352 -72 Left 2 !.tran 0 3 0
