Version 4
SHEET 1 880 680
WIRE 560 -80 192 -80
WIRE 560 -64 560 -80
WIRE 560 -64 384 -64
WIRE 192 -48 192 -80
WIRE 432 16 384 16
WIRE 560 32 560 -64
WIRE 560 32 496 32
WIRE 64 48 0 48
WIRE 192 48 192 16
WIRE 192 48 144 48
WIRE 256 48 192 48
WIRE 384 48 336 48
WIRE 432 48 384 48
WIRE 0 96 0 48
WIRE 384 128 384 48
FLAG 384 192 0
FLAG 0 176 0
FLAG 560 112 0
FLAG 464 64 0
FLAG 544 0 0
SYMBOL res 160 32 R90
WINDOW 0 0 56 VBottom 2
WINDOW 3 32 56 VTop 2
SYMATTR InstName R1
SYMATTR Value 33k
SYMBOL res 352 32 R90
WINDOW 0 0 56 VBottom 2
WINDOW 3 32 56 VTop 2
SYMATTR InstName R2
SYMATTR Value 33k
SYMBOL cap 176 -48 R0
SYMATTR InstName C1
SYMATTR Value 1000p
SYMBOL cap 368 128 R0
SYMATTR InstName C2
SYMATTR Value 470p
SYMBOL voltage 0 80 R0
WINDOW 123 0 0 Left 0
WINDOW 39 0 0 Left 0
WINDOW 3 -64 138 Left 2
SYMATTR InstName V1
SYMATTR Value PULSE(0 5 0 10u 10u 100m 200m)
SYMBOL res 544 16 R0
SYMATTR InstName R3
SYMATTR Value 100k
SYMBOL OpAmps\\OP07 464 -32 R0
SYMATTR InstName U2
SYMBOL voltage 448 0 R270
WINDOW 0 32 56 VTop 2
WINDOW 3 -32 56 VBottom 2
SYMATTR InstName 5
SYMBOL res 368 -80 R0
SYMATTR InstName R4
SYMATTR Value 68k
TEXT 0 -144 Left 2 !.tran 0 1 0 1
