Version 4
SHEET 1 880 680
WIRE 496 -48 416 -48
WIRE 592 -48 496 -48
WIRE 592 -32 592 -48
WIRE 416 0 416 -48
WIRE 496 64 496 0
WIRE 560 64 496 64
WIRE 656 80 624 80
WIRE 672 80 656 80
WIRE 96 96 -16 96
WIRE 192 96 176 96
WIRE 224 96 192 96
WIRE 336 96 304 96
WIRE 368 96 336 96
WIRE 464 96 448 96
WIRE 528 96 464 96
WIRE 560 96 528 96
WIRE 192 128 192 96
WIRE 336 128 336 96
WIRE 464 128 464 96
WIRE -16 144 -16 96
WIRE 528 144 528 96
WIRE 656 144 656 80
WIRE 656 144 528 144
WIRE 192 192 64 192
WIRE 256 192 192 192
WIRE 336 192 256 192
WIRE 464 192 336 192
WIRE 592 192 592 112
WIRE 592 192 464 192
WIRE 64 224 64 192
WIRE 64 224 -16 224
WIRE 256 304 256 192
FLAG 256 304 0
FLAG 496 -48 0
SYMBOL res 80 112 R270
WINDOW 0 32 56 VTop 2
WINDOW 3 0 56 VBottom 2
SYMATTR InstName R1
SYMATTR Value 16k
SYMBOL res 208 112 R270
WINDOW 0 32 56 VTop 2
WINDOW 3 0 56 VBottom 2
SYMATTR InstName R2
SYMATTR Value 16k
SYMBOL res 352 112 R270
WINDOW 0 32 56 VTop 2
WINDOW 3 0 56 VBottom 2
SYMATTR InstName R3
SYMATTR Value 16k
SYMBOL cap 320 128 R0
SYMATTR InstName C2
SYMATTR Value 1µ
SYMBOL cap 448 128 R0
SYMATTR InstName C3
SYMATTR Value .1µ
SYMBOL voltage -16 128 R0
WINDOW 123 0 0 Left 0
WINDOW 39 0 0 Left 0
SYMATTR InstName V1
SYMATTR Value PULSE(0 5 0 10u 10u {1/f} {2/f})
SYMBOL cap 176 128 R0
SYMATTR InstName C1
SYMATTR Value 10µ
SYMBOL OpAmps\\LT1638 592 16 R0
SYMATTR InstName U1
SYMBOL voltage 592 64 R180
WINDOW 0 24 96 Left 2
WINDOW 3 24 16 Left 2
SYMATTR InstName V2
SYMATTR Value 5
SYMBOL voltage 512 0 R90
WINDOW 0 -32 56 VBottom 2
WINDOW 3 32 56 VTop 2
SYMATTR InstName V3
SYMATTR Value 5
TEXT -32 24 Left 2 !.tran 0 1 0 1000
TEXT 32 280 Left 2 !.step param f 200 400 2
