Version 4
SHEET 1 880 680
WIRE 752 -48 624 -48
WIRE -96 32 -128 32
WIRE -16 32 -96 32
WIRE 96 32 -16 32
WIRE 416 32 288 32
WIRE 624 32 624 -48
WIRE 624 32 416 32
WIRE 752 32 624 32
WIRE 416 80 416 32
WIRE 624 96 624 32
WIRE 752 96 624 96
WIRE -16 128 -16 32
WIRE 96 128 48 128
WIRE 416 176 416 160
WIRE 416 176 320 176
WIRE 624 176 416 176
WIRE 416 208 416 176
WIRE 320 224 320 176
WIRE -16 256 -16 192
WIRE 48 256 48 128
WIRE 48 256 -16 256
WIRE 48 304 48 256
WIRE 320 320 320 288
WIRE 368 320 320 320
WIRE 416 320 416 288
WIRE 416 320 368 320
WIRE 368 352 368 320
FLAG 48 304 0
FLAG -208 32 0
FLAG -96 32 Vbus
FLAG 368 352 0
FLAG 624 32 Vout
FLAG 624 176 Half-Vout
SYMBOL References\\LT1021-5 192 80 R0
SYMATTR InstName U1
SYMBOL voltage -112 32 R90
WINDOW 0 -32 56 VBottom 2
WINDOW 3 32 56 VTop 2
WINDOW 123 0 0 Left 0
WINDOW 39 0 0 Left 0
SYMATTR InstName V1
SYMATTR Value 28
SYMBOL TVSdiode -32 128 R0
SYMATTR InstName D1
SYMATTR Value MyTVS
SYMBOL res 400 64 R0
SYMATTR InstName R1
SYMATTR Value 100k
SYMBOL res 400 192 R0
SYMATTR InstName R2
SYMATTR Value 100k
SYMBOL cap 304 224 R0
SYMATTR InstName C1
SYMATTR Value 100n
TEXT -600 144 Left 2 !.tran 0 1 0.001
TEXT -824 384 Left 2 !.model MyTVS d Ron=10m Vfwd=90 Vrev=90 Epsilon=1 RevEpsilon=1
